Version 4
SHEET 1 880 748
WIRE -96 -224 -368 -224
WIRE 608 -224 -96 -224
WIRE 448 -64 64 -64
WIRE 608 -48 608 -224
WIRE 64 48 64 -64
WIRE 64 48 -176 48
WIRE 128 48 64 48
WIRE 448 48 448 -64
WIRE 448 48 384 48
WIRE 608 80 608 32
WIRE 608 80 528 80
WIRE 128 112 -128 112
WIRE 528 112 528 80
WIRE 528 112 384 112
WIRE 608 112 608 80
WIRE -96 176 -96 -224
WIRE 0 176 -96 176
WIRE 128 176 0 176
WIRE 528 176 384 176
WIRE 528 208 528 176
WIRE 608 208 608 192
WIRE 608 208 528 208
WIRE 128 240 80 240
WIRE 432 240 384 240
WIRE -368 352 -368 -224
WIRE 80 368 80 240
WIRE 208 368 80 368
WIRE 432 368 432 240
WIRE 432 368 288 368
WIRE 608 480 608 208
WIRE 0 528 0 176
WIRE -128 544 -128 112
WIRE -112 544 -128 544
WIRE -32 544 -112 544
WIRE 368 560 32 560
WIRE 560 560 368 560
WIRE -32 576 -288 576
WIRE 368 608 368 560
WIRE -288 624 -288 576
WIRE -112 624 -112 544
WIRE -368 720 -368 432
WIRE -288 720 -288 704
WIRE -288 720 -368 720
WIRE -176 720 -176 48
WIRE -176 720 -288 720
WIRE -112 720 -112 704
WIRE -112 720 -176 720
WIRE 0 720 0 592
WIRE 0 720 -112 720
WIRE 368 720 368 688
WIRE 368 720 0 720
WIRE 608 720 608 576
WIRE 608 720 368 720
FLAG 0 720 0
SYMBOL Opamps\\LT1167 256 144 R180
SYMATTR InstName U1
SYMBOL res 592 96 R0
SYMATTR InstName R1
SYMATTR Value 2
SYMBOL res 304 352 R90
WINDOW 0 0 56 VBottom 2
WINDOW 3 32 56 VTop 2
SYMATTR InstName R2
SYMATTR Value 49
SYMBOL nmos 560 480 R0
SYMATTR InstName M1
SYMATTR Value Si7336ADP
SYMBOL voltage -368 336 R0
WINDOW 123 0 0 Left 0
WINDOW 39 0 0 Left 0
SYMATTR InstName V1
SYMATTR Value 5V
SYMBOL res 592 -64 R0
SYMATTR InstName R3
SYMATTR Value 2
SYMBOL voltage -288 608 R0
WINDOW 123 0 0 Left 0
WINDOW 39 0 0 Left 0
SYMATTR InstName V2
SYMATTR Value 1
SYMBOL res 352 592 R0
SYMATTR InstName R4
SYMATTR Value 10k
SYMBOL res -128 608 R0
SYMATTR InstName R5
SYMATTR Value 10k
SYMBOL Opamps\\LT1364 0 496 R0
SYMATTR InstName U2
TEXT -402 730 Left 2 !.tran 10ms
